643181
     RDKit          3D

 22 23  0  0  0  0  0  0  0  0999 V2000
   -3.1341    0.8426    0.8849 O   0  0  0  0  0  0  0  0  0  0  0  0
   -3.6285   -0.7704   -0.8395 O   0  0  0  0  0  0  0  0  0  0  0  0
    4.2647    1.3601    0.8209 O   0  0  0  0  0  0  0  0  0  0  0  0
    5.0875   -0.6912    0.4858 O   0  0  0  0  0  0  0  0  0  0  0  0
   -2.0111    0.3568    0.2908 C   0  0  0  0  0  0  0  0  0  0  0  0
   -2.2936   -0.5616   -0.6912 C   0  0  0  0  0  0  0  0  0  0  0  0
    0.3311    0.1075   -0.1075 C   0  0  0  0  0  0  0  0  0  0  0  0
   -0.7156    0.7162    0.6019 C   0  0  0  0  0  0  0  0  0  0  0  0
   -1.2966   -1.1695   -1.4204 C   0  0  0  0  0  0  0  0  0  0  0  0
   -4.1556    0.1214    0.1648 C   0  0  0  0  0  0  0  0  0  0  0  0
    0.0281   -0.8247   -1.1262 C   0  0  0  0  0  0  0  0  0  0  0  0
    1.7121    0.5065    0.1998 C   0  0  0  0  0  0  0  0  0  0  0  0
    2.7556   -0.3373    0.1823 C   0  0  0  0  0  0  0  0  0  0  0  0
    4.1321    0.0641    0.5020 C   0  0  0  0  0  0  0  0  0  0  0  0
    5.2223    1.4588    1.0017 H   0  0  0  0  0  0  0  0  0  0  0  0
   -0.5277    1.4459    1.3825 H   0  0  0  0  0  0  0  0  0  0  0  0
   -1.5315   -1.8853   -2.1999 H   0  0  0  0  0  0  0  0  0  0  0  0
   -4.7421   -0.4650    0.8815 H   0  0  0  0  0  0  0  0  0  0  0  0
   -4.8183    0.8457   -0.3227 H   0  0  0  0  0  0  0  0  0  0  0  0
    0.8237   -1.2827   -1.7102 H   0  0  0  0  0  0  0  0  0  0  0  0
    1.8504    1.5504    0.4746 H   0  0  0  0  0  0  0  0  0  0  0  0
    2.6471   -1.3883   -0.0601 H   0  0  0  0  0  0  0  0  0  0  0  0
  1  5  1  0
  1 10  1  0
  2  6  1  0
  2 10  1  0
  3 14  1  0
  4 14  2  0
  5  6  2  0
  5  8  1  0
  6  9  1  0
  7  8  2  0
  7 11  1  0
  7 12  1  0
  9 11  2  0
 12 13  2  0
 13 14  1  0
  3 15  1  0
  8 16  1  0
  9 17  1  0
 10 18  1  0
 10 19  1  0
 11 20  1  0
 12 21  1  0
 13 22  1  0
M  END

